12
Lattice="3.77019818077588 0.0 0.0 -1.09170574362327e-09 3.77019818777277 0.0 -3.4079482611596e-10 6.01465452611652e-10 9.56625578016444" Properties=species:S:1:pos:R:3 pca-d-10="1.2161005100623983 0.2692225127584289 1.221394868182519 0.9104853759897589 -1.5662708784846646 1.4047338188015208 -1.1508131315342431 -1.0919988228812432 0.08867468562228173 -0.06266094332275038" pbc="T T T"
Ti       0.08993090       0.08993181       0.22207200
Ti       1.97503000       0.08993090       7.39676000
Ti       0.08993182       1.97503000       2.61364000
Ti       1.97503000       1.97503000       5.00520000
O        0.08993182       0.08993181       2.21248000
O        1.97503000       0.08993090       5.40635000
O        0.08993182       1.97503000       4.60405000
O        1.97503000       0.08993181       9.38718000
O        0.08993100       1.97503000       0.62321900
O        0.08993100       0.08993090       7.79792000
O        1.97503000       1.97503000       6.99561000
O        1.97503000       1.97503000       3.01479000
12
Lattice="4.92371358642959 0.0 0.0 2.81951928191695e-16 4.60462442539212 0.0 -0.624914273740134 3.63643079534073e-16 5.27695505861152" Properties=species:S:1:pos:R:3 pca-d-10="0.24682283701967353 0.7752236182295305 0.2930422787602479 -0.39409334515210837 0.6369948044686926 -0.4764761405159756 -0.3252214534266119 1.0309207035373207 0.10949908012345348 -0.5844279127467354" pbc="T T T"
Ti       1.12244000       0.26245300       0.68473100
Ti       3.09864000       0.16886557       4.17006000
Ti       0.80998600       2.47117000       3.32321000
Ti       3.41110000       2.56477000       1.53159000
O        0.11985500       1.51805000       1.76823000
O        4.10123000       3.51789000       3.08657000
O       -0.19260200       1.21558000       4.40670000
O        4.41369000       3.82036000       0.44809300
O        1.78648000       3.59387000       1.92502000
O        2.43461000       1.44207000       2.92978000
O        1.47402000       3.74438000       4.56350000
O        2.74706000       1.29156000       0.29130100
24
Lattice="9.13928303236642 0.0 0.0 0.000117285626779259 5.3899765485159 0.0 -0.000160309073646798 -5.43517426716435e-09 5.14748196498101" Properties=species:S:1:pos:R:3 pca-d-10="0.8880331623427191 0.7500313991422265 0.6110266086886811 0.007006049173691623 -0.6858693013502611 0.2561516040442154 -0.2650517927977394 0.8222190496050388 -0.17839956174698543 0.012731863939500527" pbc="T T T"
Ti       1.44369000       0.67159500       4.52852000
Ti       3.62443000       4.95203000       1.95479000
Ti       8.19411000       4.95204000       0.82445300
Ti       3.62429000       3.36660000       4.52853000
Ti       1.44383000       2.25705000       1.95478000
Ti       6.01337000       0.67160500       3.39818000
Ti       6.01351000       2.25704000       0.82443600
Ti       8.19397000       3.36659000       3.39819000
O        0.39247300       0.91608800       1.04465000
O        4.67572000       4.70757000       3.61843000
O        0.10603697       4.70755000       4.30832000
O        4.67578000       3.61106000       1.04469000
O        0.39241200       2.01257000       3.61839000
O        4.96208000       0.91607300       1.73454000
O        4.96202000       2.01258000       4.30828000
O        0.10609697       3.61107000       1.73458000
O        2.39987000       0.76146700       2.83179000
O        2.66836000       4.86216000       0.25803600
O        7.23792000       4.86217000       2.52118000
O        2.66826000       3.45647000       2.83176000
O        2.39997000       2.16718000       0.25803400
O        6.96944000       0.76147900       5.09493000
O        6.96954000       2.16717000       2.52121000
O        7.23783000       3.45646000       5.09494000
48
Lattice="6.82792699277158 0.0 0.0 -4.80432475626137e-06 11.8263672828237 0.0 -8.65611726732947e-05 0.000478805570463851 5.57930139901609" Properties=species:S:1:pos:R:3 pca-d-10="-0.3936799360314515 0.07581839275834731 0.9057817723606826 -0.08075995675418911 0.04092553910377369 -0.3369792837530191 1.50605862453852 -2.433953197216158 -0.0534282307117544 -0.24627713114263228" pbc="T T T"
Ti       0.14093100      10.09180000       1.52126000
Ti       3.55490000       4.17859000       1.52126000
Ti       0.14084301       2.22301000       4.31096000
Ti       3.55480000       8.13619000       4.31096000
Ti       0.14092900       4.18621000       1.52129000
Ti       3.55489000      10.09940000       1.52129000
Ti       0.14084301       8.12857000       4.31093000
Ti       3.55481000       2.21539000       4.31093000
Ti       5.25526000       1.23345000       1.52130000
Ti       1.85449000       1.23341000       1.52129000
Ti       5.26845000       7.14659000       1.52129000
Ti       1.85444000      11.08130000       4.31092000
Ti       5.26841000       5.16815000       4.31092000
Ti       5.25521000      11.08140000       4.31093000
Ti       1.84125000       5.16819000       4.31093000
Ti       1.84129000       7.14663000       1.52130000
O        6.27149000       2.57862000       0.54585900
O        0.83827300       2.57873000       2.49675000
O        4.25223000       8.49191000       2.49675000
O        0.83821000       9.73616000       5.28636000
O        4.25218000       3.82298000       5.28636000
O        6.27143000       9.73605000       3.33547000
O        2.85746000       3.82287000       3.33547000
O        2.85752000       8.49180000       0.54585900
O        0.14090781       0.24413272       1.52128000
O        3.55487000       6.15727000       1.52128000
O        0.14086700       0.24432600       4.31094000
O        3.55483000       6.15751000       4.31094000
O        0.14089301       8.12833000       1.52129000
O        3.55486000       2.21515000       1.52129000
O        0.14087800       4.18645000       4.31093000
O        3.55484000      10.09960000       4.31093000
O        5.29567000       2.01547000       3.33548000
O        1.81397000       2.01568000       5.28634000
O        5.22793000       7.92886000       5.28634000
O        1.81403000      10.29930000       2.49674000
O        5.22799000       4.38613000       2.49674000
O        5.29573000      10.29910000       0.54587700
O        1.88177000       4.38592000       0.54587600
O        1.88171000       7.92865000       3.33548000
O        1.18432000       5.59401000       2.49668000
O        5.92535000       5.59384000       0.54580000
O        2.51138000      11.50700000       0.54580000
O        5.92537000       6.72077000       3.33554000
O        2.51141000       0.80758600       3.33554000
O        1.18435000       6.72094000       5.28642000
O        4.59832000       0.80775600       5.28642000
O        4.59829000      11.50720000       2.49668000
12
Lattice="4.52077698913209 0.0 0.0 -2.52970104073452e-14 5.37929160729509 0.0 5.41961217058962e-14 1.66615838389484e-13 4.93553335807123" Properties=species:S:1:pos:R:3 pca-d-10="0.3315948743241393 1.0349429276425928 0.21926869624784756 -0.39493881262243946 0.6079184873434859 -0.933321428254962 -0.39879669919062777 1.0723541892720485 0.1812869378589689 -1.2032092951248425" pbc="T T T"
Ti       0.10268700       0.92654300       1.30793000
Ti       2.36308000       1.86808000       3.77570000
Ti       0.10268700       4.55773000       3.77570000
Ti       2.36308000       3.61619000       1.30793000
O        1.34142000       2.12937000       2.13440000
O        3.38473000       2.12937000       0.48146800
O        1.12434000       0.66525100       4.60216000
O        3.38473000       3.35490000       2.94923000
O        1.12434000       4.81902000       2.13440000
O        1.34142000       3.35490000       4.60216000
O        3.60181000       4.81902000       0.48146800
O        3.60181000       0.66525100       2.94923000
12
Lattice="5.22138293519388 0.0 0.0 1.97540178239556e-07 3.25195182266335 0.0 -4.13322743080838e-07 4.16090646922064e-08 6.19131490013278" Properties=species:S:1:pos:R:3 pca-d-10="-1.6122219128560136 -1.2745710941305437 0.6490684350479551 1.948829120795252 -0.6685567069517057 -0.8025505419629296 -0.30030908269022566 0.9071914355852422 -1.850335020937879 -0.09250515533789225" pbc="T T T"
Ti       1.33019000       0.76584200       0.57608800
Ti       1.30002000       2.39182000       3.67175000
Ti       3.91071000       2.39182000       5.57537000
Ti       3.94088000       0.76584200       2.47971000
O        1.90032000       0.76584200       2.54442000
O        0.72988500       2.39182000       5.64008000
O        3.34058000       2.39182000       3.60704000
O        4.51101000       0.76584200       0.51138400
O        0.04522310       2.39182000       2.13722000
O        2.58498000       0.76584200       5.23288000
O        5.19568000       0.76584200       4.01424000
O        2.65591000       2.39182000       0.91858000
12
Lattice="4.80570476617936 0.0 0.0 -1.5539337458316e-16 4.80570476617936 0.0 2.05003370386225e-15 3.72975659189314e-15 4.80570476617936" Properties=species:S:1:pos:R:3 pca-d-10="-1.7261271382475118 0.9712713490573898 -1.976372604284818 -0.9478111534075893 -0.9991213239784961 1.650511379797135 0.4419338058975141 0.004333944380708931 -0.8014272452957154 0.0656073183792512" pbc="T T T"
Ti       4.78806000       4.78805737       4.78805737
Ti       4.78806000       2.38521000       2.38521000
Ti       2.38520000       4.78805737       2.38521000
Ti       2.38520000       2.38520000       4.78805737
O        1.18378000       1.18378000       1.18378000
O        3.58663000       1.18378000       1.18378000
O        1.18378000       1.18378000       3.58663000
O        3.58663000       1.18378000       3.58663000
O        1.18378000       3.58663000       1.18378000
O        1.18378000       3.58663000       3.58663000
O        3.58663000       3.58663000       3.58663000
O        3.58663000       3.58663000       1.18378000
24
Lattice="10.0872786906076 0.0 0.0 0.000550208801064676 10.0872943325189 0.0 2.10386289348663e-05 1.3254766206873e-05 3.04396828736289" Properties=species:S:1:pos:R:3 pca-d-10="1.5796665916584318 -0.7087010163211184 -2.3003973406315237 0.35923697545114747 -1.402220671157696 -1.7931159188427985 0.358113500371114 -0.3980934426218345 0.2281320229233575 -0.20291323413565213" pbc="T T T"
Ti       3.69380896       1.80440675       0.06688171
Ti       6.71918000       8.60823000       0.06688790
Ti       1.67527000       3.56458000       1.58887000
Ti       8.60826896       3.69378675       0.06688171
Ti       8.73774000       6.84806000       1.58887000
Ti       3.56491000       8.73744000       1.58887000
Ti       6.84809000       1.67521000       1.58887000
Ti       1.80472000       6.71885000       0.06688780
O        1.79955000       2.34817000       0.06689220
O        8.61343896       8.06445675       0.06688171
O        3.56953000       3.02082000       1.58886000
O        8.06448896       1.79950675       0.06688171
O        6.84348000       7.39183000       1.58888000
O        3.02113000       6.84316000       1.58887000
O        7.39187000       3.56948000       1.58887000
O        2.34850000       8.61312000       0.06688810
O        1.73270896       4.80518675       0.06688171
O        8.68027000       5.60744000       0.06688890
O        3.63637000       0.56379700       1.58887000
O        5.60746000       1.73257000       0.06689020
O        6.77664000       9.84885000       1.58887000
O        0.56410700       6.77622000       1.58887000
O        9.84890000       3.63643000       1.58887000
O        4.80552896       8.68006675       0.06688171
24
Lattice="4.81128810979645 0.0 0.0 -2.01456579936714e-08 9.51326935966988 0.0 -1.12466575966593e-07 1.58458437871597e-06 4.87899780006319" Properties=species:S:1:pos:R:3 pca-d-10="-0.7811695906347754 0.07491862824710505 -0.254961146037586 -0.07942811212238739 0.4111450969778041 -0.22365885083742693 -0.7924796031106908 0.2866920655739066 0.6661444798020787 -0.07840548087884001" pbc="T T T"
Ti       1.37569000       3.76215000       0.20723200
Ti       1.14737000       5.99755000       2.64673000
Ti       3.55301000       5.99755000       4.82587000
Ti       1.14737000       8.51879000       0.20723200
Ti       1.37569000       1.24091000       2.64673000
Ti       3.78133000       3.76215000       2.38637000
Ti       3.78133000       1.24091000       4.82587000
Ti       3.55301000       8.51879000       2.38637000
O        0.69660600       2.86597000       1.84020000
O        1.82645000       6.89374000       4.27970000
O        4.23209000       6.89374000       3.19290000
O        1.82645000       7.62260000       1.84020000
O        0.69660600       2.13710000       4.27970000
O        3.10225000       2.86597000       0.75340100
O        3.10225000       2.13710000       3.19290000
O        4.23209000       7.62260000       0.75340100
O        0.15621200       0.36422000       1.32055000
O        2.36684000       9.39548000       3.76005000
O        4.77249000       9.39548000       3.71255000
O        2.36684000       5.12085000       1.32055000
O        0.15621200       4.63885000       3.76005000
O        2.56186000       0.36422000       1.27305000
O        2.56186000       4.63885000       3.71255000
O        4.77249000       5.12085000       1.27305000
24
Lattice="9.51327 0.0 0.0 0.0 4.879 0.0 0.0 0.0 4.81129" Properties=species:S:1:pos:R:3 pca-d-10="0.08357435712957594 -1.205377131897137 0.530235199869021 0.2840979081746887 0.23558259149582292 0.7519508167857039 2.6323510062404067 1.1239263521596672 1.2611742044502403 -0.3447740383781077" pbc="T T T"
Ti       8.01102000       0.23696400       1.18195000
Ti       5.56698000       4.59904000       3.49045000
Ti       1.04098000       4.59904000       3.43505000
Ti       5.56698000       2.65496000       1.18195000
Ti       8.01102000       2.18104000       3.49045000
Ti       3.48502000       0.23696400       1.12655000
Ti       3.48502000       2.18104000       3.43505000
Ti       1.04098000       2.65496000       1.12655000
O        7.28686000       1.93924000       0.62329500
O        6.29114000       2.89676000       2.93180000
O        1.76514000       2.89676000       3.99370000
O        6.29114000       4.35724000       0.62329500
O        7.28686000       0.47876400       2.93180000
O        2.76086000       1.93924000       1.68521000
O        2.76086000       0.47876400       3.99370000
O        1.76514000       4.35724000       1.68521000
O        8.55414000       3.33684000       2.14229000
O        5.02386000       1.49916000       4.45079000
O        0.49786000       1.49916000       2.47471000
O        5.02386000       0.91884000       2.14229000
O        8.55414000       3.91716000       4.45079000
O        4.02814000       3.33684000       0.16621200
O        4.02814000       3.91716000       2.47471000
O        0.49786000       0.91884000       0.16621200
12
Lattice="4.91251 0.0 0.0 0.0 4.76806 0.0 0.0 0.0 4.78821" Properties=species:S:1:pos:R:3 pca-d-10="-0.5625008250296849 -0.34318585680427766 -0.17333552492980542 0.4526779622534939 -0.09749005868782855 0.23493931587233532 -0.8438852350611012 0.3904664969462135 2.1441346898604405 2.321440681585467" pbc="T T T"
Ti       2.67829000       3.47931000       1.01574000
Ti       2.25593000       1.30983000       3.42043000
Ti       0.21118500       1.30983000       1.01574000
Ti       4.72304000       3.47931000       3.42043000
O        1.22221000       2.69581000       2.21616000
O        3.71201000       2.09333000       4.62085000
O        3.68932000       2.09333000       2.21616000
O        1.24490000       2.69581000       4.62085000
O        1.92089000       0.44682700       1.43752000
O        3.01333000       4.34231000       3.84221000
O        4.38800000       4.34231000       1.43752000
O        0.54621800       0.44682700       3.84221000
12
Lattice="4.82249908378285 0.0 0.0 -4.59474719078648e-09 4.82249908083601 0.0 9.23840554417219e-09 -4.7642326703613e-10 4.82249908094319" Properties=species:S:1:pos:R:3 pca-d-10="-0.5944366862474794 0.5677556326435901 0.3796257488686853 -0.5186852594540771 1.0226202710808032 -1.5907833169776227 -0.013709794555478022 -1.0840410750811094 -0.3945287624850012 1.4903261395672691" pbc="T T T"
Ti       0.04172091       0.04172092       0.04172092
Ti       2.45297000       2.45297000       0.04172550
Ti       0.04172092       2.45297000       2.45297000
Ti       2.45297000       0.04172092       2.45298000
O        1.66958000       1.66959000       1.66959000
O        0.82510400       4.08083000       1.66959000
O        3.23635000       4.08083000       0.82511100
O        4.08083000       1.66959000       0.82511100
O        4.08083000       0.82510700       3.23636000
O        1.66958000       0.82510700       4.08084000
O        0.82510400       3.23636000       4.08084000
O        3.23635000       3.23636000       3.23636000
12
Lattice="9.67234620177528 0.0 0.0 -8.90907183459741e-07 3.2449928562259 0.0 -0.000119593200596581 6.72163034561897e-09 3.58574629238383" Properties=species:S:1:pos:R:3 pca-d-10="-0.958337812064099 0.036506823868319896 -0.15775411764373243 0.28198700276627114 0.4427735917165537 0.16003058008256643 -0.8367042886969998 -0.9287810330833985 1.255906534169 -2.1668853417708194" pbc="T T T"
Ti       5.85055000       0.76367200       0.90614300
Ti       8.38827000       2.38617000       2.69900000
Ti       3.55209000       2.38617000       2.61136000
Ti       1.01437000       0.76367200       0.81850400
O        7.44689000       0.76367200       3.28352000
O        6.79190000       2.38617000       1.49064000
O        1.95575000       2.38617000       0.23397500
O        2.61074000       0.76367200       2.02686000
O        0.11711400       0.76367200       2.62437000
O        4.44932000       2.38617000       0.83149400
O        9.28553000       2.38617000       0.89312800
O        4.95331000       0.76367200       2.68601000
12
Lattice="3.58575 0.0 0.0 0.0 9.67235 0.0 0.0 0.0 3.24499" Properties=species:S:1:pos:R:3 pca-d-10="0.5084351524195054 -2.4563144530707994 0.30212112264795166 -2.3747356478941284 0.3459444371291601 0.5112337416835835 -0.9495627073314606 -0.06564326076223306 -0.789995602488631 -0.02727784818534443" pbc="T T T"
Ti       3.52174000       1.23912000       0.76455000
Ti       0.36661000       8.28166000       2.38705000
Ti       2.15952000       6.07530000       0.76455000
Ti       1.72887000       3.44548000       2.38705000
O        2.40704000       2.53396000       0.76455000
O        1.48131000       6.98682000       2.38705000
O        3.27418000       7.37023000       0.76455000
O        0.61417000       2.15055000       2.38705000
O        0.87546000       9.32753000       0.76455000
O        3.01289000       0.19325000       2.38705000
O        1.22002000       4.49136000       0.76455000
O        2.66834000       5.02943000       2.38705000
6
Lattice="4.49284837441256 0.0 0.0 -3.20738955840767e-15 4.49284837441255 0.0 -6.0210141643542e-15 -5.54030516600725e-15 3.00818115543485" Properties=species:S:1:pos:R:3 pca-d-10="0.5032941064933129 1.2896124889692742 0.8487327449850167 -0.8668547731356495 -0.7256076341409778 -0.10375799814829047 0.8857256630081172 0.6331913849742067 -0.7554876626862926 0.6905833167303608" pbc="T T T"
Ti       0.09633163       0.09633080       0.07471440
Ti       2.34275000       2.34276000       1.57881000
O        1.45892000       1.45892000       0.07471884
O        3.22659000       3.22659000       0.07471440
O        3.70534000       0.98016600       1.57881000
O        0.98016600       3.70534000       1.57881000
24
Lattice="12.2987940162305 0.0 0.0 0.000115521776717943 3.74734977348472 0.0 -1.85477115987063 -2.63208641533751e-05 6.21450718413126" Properties=species:S:1:pos:R:3 pca-d-10="1.2709523096612692 0.14284577890707817 -1.0974767421311615 1.412986665938338 2.4012317554354445 1.2910922222259813 0.05235118833939317 -0.2687847903883061 -1.111350548457804 0.42864706082217446" pbc="T T T"
Ti       3.62152448       0.09022023       1.40631000
Ti       7.40490000       0.09023050       5.09410000
Ti       9.77098000       1.96390000       1.40631000
Ti       1.25556000       1.96391000       5.09410000
Ti       7.28218000       0.09028490       1.41959000
Ti       3.74425448       0.09017023       5.08082000
Ti       1.13284000       1.96396000       1.41958000
Ti       9.89370000       1.96384000       5.08083000
O        1.62896000       0.09026900       1.35766000
O        9.39747448       0.09018023       5.14275000
O        7.77841000       1.96394000       1.35766000
O        3.24813000       1.96386000       5.14275000
O        3.78505448       0.09018023       3.23155000
O        7.24137000       0.09027630       3.26886000
O        9.93451000       1.96385000       3.23155000
O        1.09204000       1.96395000       3.26886000
O        5.44994448       0.09022023       0.88473400
O        5.57649000       0.09023640       5.61568000
O       11.59940000       1.96389000       0.88473500
O       -0.57285000       1.96391000       5.61567000
O        9.39017448       0.09024023       1.01284000
O        1.63626000       0.09021860       5.48757000
O        3.24083000       1.96391000       1.01284000
O        7.78571000       1.96389000       5.48757000
