24
Lattice='6.95308910611230 -0.441461383064508E-03 0.153257491362057E-05 -0.441984644875789E-03 6.95125428830808 -0.167510388456167E-05 0.598964230901667E-06 -0.655083767145052E-06 4.33409722837533' Properties=species:S:1:pos:R:3
H 0.21 -12.55 -17.34
H 1.35 -13.69 -17.34
H 5.23 -12.18 -18.18
H 5.23 -12.18 -16.49
H 1.73 -8.68 -18.18
H 1.73 -8.68 -16.49
H 5.60 -7.16 -17.34
H 6.74 -8.31 -17.34
H 1.75 -12.15 -14.33
H 1.75 -12.15 -16.01
H 3.27 -9.08 -15.17
H 2.12 -10.22 -15.17
H 4.83 -10.64 -15.17
H 3.69 -11.78 -15.17
H 5.20 -8.70 -14.33
H 5.20 -8.70 -16.01
O 1.23 -12.68 -17.34
O 5.64 -12.59 -17.34
O 1.32 -8.27 -17.34
O 5.73 -8.18 -17.34
O 2.16 -11.75 -15.17
O 2.25 -9.20 -15.17
O 4.70 -11.65 -15.17
O 4.80 -9.11 -15.17
36
Lattice='5.57926027829913 -0.239283692756255E-01 0.672387221370512E-01 -0.238267844762206E-01 5.57671143673051 0.875355008683412E-01 0.120716934778758 0.157931252542838 9.97146514433070' Properties=species:S:1:pos:R:3
H 0.28 0.73 -0.56
H 0.72 -0.38 0.56
H 2.11 3.21 4.49
H 2.53 2.15 5.67
H 3.50 3.08 -0.51
H 3.11 2.00 0.68
H 0.47 -0.67 4.41
H -0.63 -0.23 5.54
H 3.98 2.32 4.18
H 5.14 1.18 4.16
H 0.24 3.04 3.51
H 1.30 4.10 2.76
H 1.73 2.41 9.16
H 0.27 2.77 8.48
H 5.11 4.57 9.18
H 4.35 4.21 7.76
H 3.36 4.04 5.95
H 3.03 5.50 6.65
H 1.23 0.63 5.94
H 1.56 1.41 7.35
H 2.26 3.91 0.94
H 2.57 5.38 1.63
H 4.43 0.49 1.00
H 4.08 1.28 2.40
O -0.07 -0.05 0.01
O 2.89 2.90 5.07
O 2.74 2.74 0.08
O 0.15 0.11 4.99
O 4.73 1.93 3.60
O 0.96 3.75 3.65
O 0.97 2.03 8.58
O 4.75 3.80 8.61
O 3.76 4.79 6.52
O 1.99 1.01 6.51
O 1.85 4.67 1.49
O 3.66 0.88 1.55
